test/WSCC 9 bus taps.raw
0,   100.00, 33, 0, 0, 60.00     / PSS(R)E 33 RAW created by rawd33  WED, OCT 23 2024  17:30


     1,'BUS1        ',  16.5000,3,   1,   1,   1,1.04000,   0.0000,1.10000,0.90000,1.10000,0.90000
     2,'BUS 2       ',  18.0000,2,   1,   1,   1,1.02500,   9.0651,1.10000,0.90000,1.10000,0.90000
     3,'BUS 3       ',  13.8000,2,   1,   1,   1,1.02500,   4.7117,1.10000,0.90000,1.10000,0.90000
     4,'BUS 4       ', 230.0000,1,   1,   1,   1,1.03316,  -2.1989,1.10000,0.90000,1.10000,0.90000
     5,'BUS 5       ', 230.0000,1,   1,   1,   1,1.00889,  -3.6758,1.10000,0.90000,1.10000,0.90000
     6,'BUS 6       ', 230.0000,1,   1,   1,   1,1.03089,  -3.5812,1.10000,0.90000,1.10000,0.90000
     7,'BUS 7       ', 230.0000,1,   1,   1,   1,1.03719,   3.5662,1.10000,0.90000,1.10000,0.90000
     8,'BUS 8       ', 230.0000,1,   1,   1,   1,1.03744,   1.0736,1.10000,0.90000,1.10000,0.90000
     9,'BUS 9       ', 230.0000,1,   1,   1,   1,1.06875,   1.9752,1.10000,0.90000,1.10000,0.90000
 0 /End of Bus data, Begin Load data
     5,'1 ',1,   1,   1,   125.000,    50.000,     0.000,     0.000,     0.000,     0.000,   1,1,0
     6,'1 ',1,   1,   1,    90.000,    30.000,     0.000,     0.000,     0.000,     0.000,   1,1,0
     8,'1 ',1,   1,   1,   100.000,    35.000,     0.000,     0.000,     0.000,     0.000,   1,1,0
 0 /End of Load data, Begin Fixed shunt data
 0 /End of Fixed shunt data, Begin Generator data
     1,'1 ',    71.575,    13.717,  9900.000, -9900.000,1.04000,     0,   500.000, 0.00000E+0, 1.00000E+0, 0.00000E+0, 0.00000E+0,1.00000,1,  100.0,   450.000,     0.000,   1,1.0000
     2,'1 ',   163.000,   -12.163,  9900.000, -9900.000,1.02500,     0,   250.000, 0.00000E+0, 1.00000E+0, 0.00000E+0, 0.00000E+0,1.00000,1,  100.0,   240.000,     0.000,   1,1.0000
     3,'1 ',    85.000,    14.520,  9900.000, -9900.000,1.02500,     0,   100.000, 0.00000E+0, 1.00000E+0, 0.00000E+0, 0.00000E+0,1.00000,1,  100.0,    90.000,     0.000,   1,1.0000
 0 /End of Generator data, Begin Branch data
     4,     5,'1 ', 1.00000E-2, 6.80000E-2,   0.17600,    0.00,    0.00,    0.00,  0.00000,  0.00000,  0.00000,  0.00000,1,2,   0.00,   1,1.0000
     4,     6,'1 ', 1.70000E-2, 9.20000E-2,   0.15800,    0.00,    0.00,    0.00,  0.00000,  0.00000,  0.00000,  0.00000,1,2,   0.00,   1,1.0000
     5,     7,'1 ', 3.20000E-2, 1.61000E-1,   0.30600,    0.00,    0.00,    0.00,  0.00000,  0.00000,  0.00000,  0.00000,1,2,   0.00,   1,1.0000
     6,     9,'1 ', 3.90000E-2, 1.73800E-1,   0.35800,    0.00,    0.00,    0.00,  0.00000,  0.00000,  0.00000,  0.00000,1,2,   0.00,   1,1.0000
     7,     8,'1 ', 8.50000E-3, 5.76000E-2,   0.14900,    0.00,    0.00,    0.00,  0.00000,  0.00000,  0.00000,  0.00000,1,1,   0.00,   1,1.0000
     8,     9,'1 ', 1.19000E-2, 1.00800E-1,   0.20900,    0.00,    0.00,    0.00,  0.00000,  0.00000,  0.00000,  0.00000,1,1,   0.00,   1,1.0000
 0 /End of Branch data, Begin Transformer data
     4,     1,     0,'1 ',1,1,1, 0.00000E+0, 0.00000E+0,2,'            ',1,   1,1.0000,   0,1.0000,   0,1.0000,   0,1.0000,'            '
 0.00000E+0, 5.76000E-2,   100.00
1.00000,   0.000,   0.000,     0.00,     0.00,     0.00, 0,      0, 1.50000, 0.51000, 1.50000, 0.51000, 159, 0, 0.00000, 0.00000,  0.000
1.00000,   0.000
     2,     7,     0,'1 ',1,1,1, 0.00000E+0, 0.00000E+0,2,'            ',1,   1,1.0000,   0,1.0000,   0,1.0000,   0,1.0000,'            '
 0.00000E+0, 6.25000E-2,   100.00
1.00000,   0.000,   0.000,     0.00,     0.00,     0.00, 0,      2, 1.10000, 0.90000, 1.00000, 0.99000,  33, 0, 0.00000, 0.00000,  0.000
1.00000,   0.000
     9,     3,     0,'1 ',1,1,1, 0.00000E+0, 0.00000E+0,2,'            ',1,   1,1.0000,   0,1.0000,   0,1.0000,   0,1.0000,'            '
 0.00000E+0, 5.86000E-2,   100.00
1.05000,   0.000,   0.000,     0.00,     0.00,     0.00, 0,      9, 1.10000, 0.90000, 1.00000, 0.99000,  33, 0, 0.00000, 0.00000,  0.000
1.00000,   0.000
 0 /End of Transformer data, Begin Area interchange data
   1,     0,     0.000,     1.000,'1           '
 0 /End of Area interchange data, Begin Two-terminal dc line data
 0 /End of Two-terminal dc line data, Begin VSC dc line data
 0 /End of VSC dc line data, Begin Impedance correction table data
 0 /End of Impedance correction table data, Begin Multi-terminal dc line data
 0 /End of Multi-terminal dc line data, Begin Multi-section line data
 0 /End of Multi-section line data, Begin Zone data
   1,'1           '
 0 /End of Zone data, Begin Inter-area transfer data
 0 /End of Inter-area transfer data, Begin Owner data
   1,'1           '
 0 /End of Owner data, Begin FACTS device data
 0 /End of FACTS device data, Begin Switched shunt data
 0 /End of Switched shunt data, Begin GNE device data
 0 /End of GNE device data, Begin Induction machine data
 0 /End of Induction machine data
Q
